          6
PSI4 HF n=3
 H     -7.2728523608    -6.9335917038    -3.0553433716
 F     -7.0045802956    -6.4982983730    -3.7737523587
 H     -5.8683701342    -5.4988029724    -2.7848237803
 F     -5.4848879791    -5.3781471151    -1.9349427254
 H     -6.4368429180    -6.6626292342    -1.2284526650
 F     -7.0907793844    -7.3288509689    -1.3603448631
