          8
PSI4 HF n=4
 H     2.3421682240    -4.7256851265    -1.2040513766
 F     1.7759459664    -4.5545749740    -1.9514432420
 H     0.2928178282    -4.0318325864    0.71354127520
 F     0.8590446131    -4.2029366045    1.46093452640
 H     2.2349672473    -4.6580167177    0.83633645160
 F     2.9433595402    -4.8967078043    0.24498891370
 H     0.4019645826    -4.1001111465    -1.3284071094
 F     -0.308460364    -3.8607440964    -0.7354082920
