          10
 PSI4 HF n=5
 H     0.70820678350     0.3472084822     5.1611945413
 F     -0.2426935080     0.4206030837     5.0821757243
 H     2.60446041490     0.1904305330     4.2520657879
 F     2.23623500010     0.2276960190     5.1345803040
 H     0.25933982240     0.3513445040     1.7787761581
 F     1.07466725380     0.2828124671     1.2823850495
 H     2.32713680460     0.1934193401     2.1618368908
 F     3.05038135200     0.1422892264     2.7864635382
 H     -0.7405283545     0.4475696789     3.6349870028
 F     -0.9606477421     0.4566037715     2.7009021628
