          12
GAMESS HF n=6
 H     0.624268     -6.637702     2.096411
 F    -2.232539     -6.887350     1.303813
 H    -2.011248     -2.071855    -2.973347
 F    -0.762675     -1.335304    -4.058203
 H     4.496083     -2.804326    -0.615745
 F     5.081438     -4.220135     0.348880
 H    -3.297137     -4.673876    -0.188072
 F    -3.889991     -3.262175    -1.154401
 H     1.815838     -0.831472    -2.893121
 F     3.426394     -0.589476    -2.102981
 H     3.199159     -5.400203     2.172714
 F     1.949103     -6.120688     3.256379